Circuit: * Z:\Documents\Education\Courses\Current\ECE 2250-01\P_2-30.asc

Direct Newton iteration for .op point succeeded.

Date: Fri Sep 13 11:21:06 2013
Total elapsed time: 0.000 seconds.

tnom = 27
temp = 27
method = trap
totiter = 3
traniter = 0
tranpoints = 0
accept = 0
rejected = 0
matrix size = 12
fillins = 0
solver = Normal
Matrix Compiler1: 356 bytes object code size
Matrix Compiler2: 738 bytes object code size

