Circuit: * Z:\Documents\Education\Courses\Current\ECE 2250-01\P_3-26.asc

WARNING: Less than two connections to node V4.  This node is used by R5.
WARNING: Less than two connections to node V5.  This node is used by R6.
Direct Newton iteration for .op point succeeded.

Date: Mon Sep 23 08:53:34 2013
Total elapsed time: 0.016 seconds.

tnom = 27
temp = 27
method = trap
totiter = 3
traniter = 0
tranpoints = 0
accept = 0
rejected = 0
matrix size = 5
fillins = 0
solver = Normal
Matrix Compiler1: 204 bytes object code size
Matrix Compiler2: 335 bytes object code size

