Circuit: * Z:\Documents\Education\Courses\Current\ECE 2250-01\P_3-49.asc

Direct Newton iteration for .op point succeeded.

Date: Fri Sep 13 12:17:59 2013
Total elapsed time: 0.015 seconds.

tnom = 27
temp = 27
method = trap
totiter = 3
traniter = 0
tranpoints = 0
accept = 0
rejected = 0
matrix size = 5
fillins = 0
solver = Normal
Matrix Compiler1: 230 bytes object code size
Matrix Compiler2: 355 bytes object code size

