Circuit: * Z:\Documents\Education\Courses\Current\ECE 2250-01\P_EX2-5.asc

Direct Newton iteration for .op point succeeded.

Date: Mon Oct 21 21:51:20 2013
Total elapsed time: 0.016 seconds.

tnom = 27
temp = 27
method = trap
totiter = 3
traniter = 0
tranpoints = 0
accept = 0
rejected = 0
matrix size = 6
fillins = 1
solver = Normal
Matrix Compiler1: 316 bytes object code size
Matrix Compiler2: 462 bytes object code size

