Circuit: * \\psf\Home\Documents\Education\Courses\Current\ECE 2250-01\lab4.asc


Date: Tue Oct 23 10:13:23 2012
Total elapsed time: 0.016 seconds.

tnom = 27
temp = 27
method = trap
totiter = 35
traniter = 0
tranpoints = 0
accept = 0
rejected = 0
matrix size = 6
fillins = 0
solver = Normal
Matrix Compiler1: 360 bytes object code size
Matrix Compiler2: 462 bytes object code size

