Circuit: * Z:\Documents\Education\Courses\Current\ECE 2250-01\lab7-4.asc

.OP point found by inspection.

Date: Tue Nov 26 13:52:50 2013
Total elapsed time: 0.047 seconds.

tnom = 27
temp = 27
method = modified trap
totiter = 2390
traniter = 2390
tranpoints = 1196
accept = 1167
rejected = 29
matrix size = 3
fillins = 0
solver = Normal
Matrix Compiler1: 86 bytes object code size  0.2/0.2/[0.2]
Matrix Compiler2: 163 bytes object code size  0.2/0.2/[0.2]


