Circuit: * Z:\Documents\Education\Courses\Current\ECE 2250-01\lab7-3.asc

.OP point found by inspection.

Date: Tue Nov 26 13:49:50 2013
Total elapsed time: 0.015 seconds.

tnom = 27
temp = 27
method = modified trap
totiter = 2370
traniter = 2370
tranpoints = 1186
accept = 1161
rejected = 25
matrix size = 4
fillins = 0
solver = Normal
Matrix Compiler1: 100 bytes object code size  0.2/0.2/[0.2]
Matrix Compiler2: 248 bytes object code size  0.2/0.2/[0.2]


