Circuit: * Z:\Documents\Education\Courses\Past\ECE 2250-01\lab7\lab7-1.asc

.OP point found by inspection.

Date: Sat Jan 18 12:15:31 2014
Total elapsed time: 0.015 seconds.

tnom = 27
temp = 27
method = modified trap
totiter = 2774
traniter = 2774
tranpoints = 1388
accept = 1298
rejected = 90
matrix size = 3
fillins = 0
solver = Normal
Matrix Compiler1: 50 bytes object code size  0.2/0.2/[0.2]
Matrix Compiler2: 175 bytes object code size  0.2/0.2/[0.2]


